case300_SE.m
function mpc = case300_SE
%CASE300_SE

%% MATPOWER Case Format : Version 2
mpc.version = '2';

%%-----  Power Flow Data  -----%%
%% system MVA base
mpc.baseMVA = 100;

%% bus data
%	bus_i	type	Pd	Qd	Gs	Bs	area	Vm	Va	baseKV	zone	Vmax	Vmin
mpc.bus = [
	1	1	90	49	0	0	1	1.02842015	5.96736574	115	1	1.06	0.94;
	2	1	56	15	0	0	1	1.03534039	7.7549745	115	1	1.06	0.94;
	3	1	20	0	0	0	1	0.997098674	6.65708109	230	1	1.06	0.94;
	4	1	0	0	0	0	1	1.0308118	4.72827003	345	1	1.06	0.94;
	5	1	353	130	0	0	1	1.0191091	4.70140239	115	1	1.06	0.94;
	6	1	120	41	0	0	1	1.03119612	7.00606218	115	1	1.06	0.94;
	7	1	0	0	0	0	1	0.993407714	6.20564604	230	1	1.06	0.94;
	8	2	63	14	0	0	1	1.0153	2.41527525	115	1	1.06	0.94;
	9	1	96	43	0	0	1	1.00338574	2.87085821	115	1	1.06	0.94;
	10	2	153	33	0	0	1	1.0205	1.36318128	230	1	1.06	0.94;
	11	1	83	21	0	0	1	1.00565721	2.48124373	115	1	1.06	0.94;
	12	1	0	0	0	0	1	0.997373202	5.23026693	230	1	1.06	0.94;
	13	1	58	10	0	0	1	0.997674375	-0.537103563	115	1	1.06	0.94;
	14	1	160	60	0	0	1	0.999169906	-4.79583792	115	1	1.06	0.94;
	15	1	126.7	23	0	0	1	1.03439126	-8.56699263	115	1	1.06	0.94;
	16	1	0	0	0	0	1	1.03158695	-2.62231908	345	1	1.06	0.94;
	17	1	561	220	0	0	1	1.06490618	-13.0847496	115	1	1.06	0.94;
	18	1	0	0	0	0	1	0.981923559	1.08870434	230	1	1.06	0.94;
	19	2	605	120	0	0	1	1.001	-2.4469348	115	1	1.06	0.94;
	20	1	77	1	0	0	1	0.975167954	1.63397476	230	1	1.06	0.94;
	21	1	81	23	0	0	1	0.996270178	-1.95994324	115	1	1.06	0.94;
	22	1	21	7	0	0	1	1.05009765	3.95145261	115	1	1.06	0.94;
	23	1	0	0	0	0	1	1.00565562	6.03302576	230	1	1.06	0.94;
	24	1	45	12	0	0	1	1.02335353	1.45276449	115	1	1.06	0.94;
	25	1	28	9	0	0	1	0.998577095	-1.72104002	115	1	1.06	0.94;
	26	1	69	13	0	0	1	0.975035262	-4.88256577	115	1	1.06	0.94;
	27	1	55	6	0	0	1	1.0245648	-12.0018741	115	1	1.06	0.94;
	28	1	0	0	0	0	1	1.04144101	-7.90090059	345	1	1.06	0.94;
	29	1	0	0	0	0	1	0.975687595	-25.6817335	115	1	1.06	0.94;
	30	1	0	0	0	0	1	1.00116986	-22.5188124	230	1	1.06	0.94;
	31	1	85	32	0	0	1	1.0201582	-11.21446	115	1	1.06	0.94;
	32	1	155	18	0	0	1	1.02031162	-12.5385775	115	1	1.06	0.94;
	33	1	0	0	0	0	1	1.05361061	-5.77304793	345	1	1.06	0.94;
	34	1	46	-21	0	0	1	1.02165472	-12.7608744	115	1	1.06	0.94;
	35	1	86	0	0	0	1	1.02928287	-10.4254025	115	1	1.06	0.94;
	36	1	0	0	0	0	1	1.04494412	-7.40650007	345	1	1.06	0.94;
	37	1	39	9	0	0	1	1.0007318	-16.7633605	115	1	1.06	0.94;
	38	1	195	29	0	0	1	1.00873503	-17.4310106	115	1	1.06	0.94;
	39	1	0	0	0	0	1	1.02164615	-14.6903429	230	1	1.06	0.94;
	40	1	0	0	0	0	1	1.03451483	-11.697007	345	1	1.06	0.94;
	41	1	58	11.8	0	0	1	0.977877377	-23.1630027	115	1	1.06	0.94;
	42	1	41	19	0	0	1	1.00195845	-16.1207191	115	1	1.06	0.94;
	43	1	92	26	0	0	1	1.04749941	-2.94453588	115	1	1.06	0.94;
	44	1	-5	5	0	0	1	1.02538774	-8.13465055	115	1	1.06	0.94;
	45	1	61	28	0	0	1	0.998003135	-11.8395	115	1	1.06	0.94;
	46	1	69	3	0	0	1	0.9960348	-17.5787614	115	1	1.06	0.94;
	47	1	10	1	0	0	1	1.00513492	-16.2223455	115	1	1.06	0.94;
	48	1	22	10	0	0	1	1.0151464	-12.1874588	115	1	1.06	0.94;
	49	1	98	20	0	0	1	1.03349014	-7.9659047	115	1	1.06	0.94;
	50	1	14	1	0	0	1	0.991822146	-5.9588855	115	1	1.06	0.94;
	51	1	218	106	0	0	1	0.978860103	-5.2524479	115	1	1.06	0.94;
	52	1	0	0	0	0	1	1.02471633	-9.51479968	230	1	1.06	0.94;
	53	1	227	110	0	0	1	0.990653649	-3.43318258	115	1	1.06	0.94;
	54	1	0	0	0	0	1	1.01603973	-1.06155602	230	1	1.06	0.94;
	55	2	70	30	0	0	1	0.9583	-17.5886179	115	1	1.06	0.94;
	56	1	0	0	0	0	1	0.94795568	-12.9355115	230	1	1.06	0.94;
	57	1	0	0	0	0	1	0.962697923	-26.4716652	115	1	1.06	0.94;
	58	1	56	20	0	0	1	0.951318457	-35.1237581	115	1	1.06	0.94;
	59	1	116	38	0	0	1	0.979390702	-29.8445659	115	1	1.06	0.94;
	60	1	57	19	0	0	1	0.969614244	-27.4412424	115	1	1.06	0.94;
	61	1	224	71	0	0	1	0.977610477	-25.7372863	115	1	1.06	0.94;
	62	1	0	0	0	0	1	0.996488299	-21.9430147	230	1	1.06	0.94;
	63	2	208	107	0	0	1	0.9632	-26.5029725	115	1	1.06	0.94;
	64	1	74	28	0	0	1	0.983787299	-24.9110077	115	1	1.06	0.94;
	65	1	0	0	0	0	1	0.990023387	-24.0346027	115	1	1.06	0.94;
	66	1	48	14	0	0	1	0.982012341	-25.0112784	115	1	1.06	0.94;
	67	1	28	7	0	0	1	0.987242422	-24.8171843	115	1	1.06	0.94;
	68	1	0	0	0	0	1	1.03412687	-18.7566941	345	1	1.06	0.94;
	69	2	37	13	0	0	1	1.025	-17.1477822	115	1	1.06	0.94;
	70	1	0	0	0	0	1	0.987112105	-17.7650624	230	1	1.06	0.94;
	71	1	0	0	0	0	1	0.99081794	-14.2479404	230	1	1.06	0.94;
	72	1	0	0	0	0	1	0.991953641	-7.79272937	230	1	1.06	0.94;
	73	1	0	0	0	0	1	1.01524801	-20.8668046	230	1	1.06	0.94;
	74	1	44.2	0	0	0	1	1.03172441	-11.1429144	115	1	1.06	0.94;
	75	1	66	0	0	0	1	1.02723076	-11.2348912	115	1	1.06	0.94;
	76	2	17.4	0	0	0	1	1.052	-9.4369864	115	1	1.06	0.94;
	77	2	15.8	0	0	0	1	1.052	-6.24389715	115	1	1.06	0.94;
	78	1	60.3	0	0	0	1	0.992945005	-9.44931558	115	1	1.06	0.94;
	79	1	39.9	0	0	0	1	1.01822439	-13.2870836	115	1	1.06	0.94;
	80	2	66.7	0	0	0	1	1	-14.6648617	115	1	1.06	0.94;
	81	1	83.5	0	0	0	1	0.989358457	-20.3752569	115	1	1.06	0.94;
	82	1	0	0	0	0	1	1.00598596	-14.5033283	115	1	1.06	0.94;
	83	1	77.8	0	0	0	1	1.00070765	-15.2925752	115	1	1.06	0.94;
	84	1	32	0	0	0	1	1.0287588	-12.118075	115	1	1.06	0.94;
	85	1	8.6	0	0	0	1	0.995736736	-17.4016288	115	1	1.06	0.94;
	86	1	49.6	0	0	0	1	1.02226693	-13.0017109	115	1	1.06	0.94;
	87	1	4.6	0	0	0	1	1.00946117	-16.0817834	115	1	1.06	0.94;
	88	2	112.1	0	0	0	1	0.99	-20.363463	115	1	1.06	0.94;
	89	1	30.7	0	0	0	1	0.975244728	-26.2916204	115	1	1.06	0.94;
	90	1	63	0	0	0	1	0.973212905	-24.9315806	115	1	1.06	0.94;
	91	1	19.6	0	0	0	1	0.974472916	-29.2739119	115	1	1.06	0.94;
	92	1	26.2	0	0	0	1	0.970155245	-25.4471109	115	1	1.06	0.94;
	93	1	18.2	0	0	0	1	0.976812033	-29.2091983	115	1	1.06	0.94;
	94	1	0	0	0	0	1	0.960282046	-13.548487	115	2	1.06	0.94;
	95	1	0	0	0	0	1	1.02486076	-12.666916	115	2	1.06	0.94;
	96	1	0	0	0	325	1	0.934828969	-4.69918419	115	2	1.06	0.94;
	97	1	14.1	650	0	0	1	0.929853059	-4.10157331	115	2	1.06	0.94;
	98	2	0	0	0	0	1	1.0435	5.18733838	115	2	1.06	0.94;
	99	1	777	215	0	55	1	0.958437324	-8.74920988	115	2	1.06	0.94;
	100	1	535	55	0	0	1	0.987111098	-12.614836	115	2	1.06	0.94;
	101	1	229.1	11.8	0	0	1	0.972796082	-14.3430693	115	2	1.06	0.94;
	102	1	78	1.4	0	0	1	1.00058793	-17.613437	115	2	1.06	0.94;
	103	2	276.4	59.3	0	0	1	1.0233	-13.4644599	115	2	1.06	0.94;
	104	2	514.8	82.7	0	0	1	1.0103	-18.4065071	115	2	1.06	0.94;
	105	1	57.9	5.1	0	0	1	0.997795453	-12.8426799	115	2	1.06	0.94;
	106	1	380.8	37	0	0	1	1.00012891	-10.5018036	230	2	1.06	0.94;
	107	1	0	0	0	0	1	1.00240611	-4.75589409	230	2	1.06	0.94;
	108	1	0	0	0	0	1	1.00282473	-4.37713752	230	2	1.06	0.94;
	109	1	0	0	0	0	1	1.01913583	5.57782548	230	2	1.06	0.94;
	110	1	0	0	0	0	1	0.986142347	6.07365107	230	2	1.06	0.94;
	111	1	0	0	0	0	1	1.00455115	3.06381636	230	2	1.06	0.94;
	112	1	0	0	0	0	1	1.00199833	-5.43899169	230	2	1.06	0.94;
	113	1	0	0	0	0	1	1.02207569	-8.02223598	230	2	1.06	0.94;
	114	1	169.2	41.6	0	0	1	1.01933725	-6.73394912	230	2	1.06	0.94;
	115	1	55.2	18.2	0	0	1	1.04758617	1.56301009	230	2	1.06	0.94;
	116	1	273.6	99.8	0	0	1	1.04708812	-1.43150739	230	2	1.06	0.94;
	117	2	1019.2	135.2	0	0	1	1.055	-6.33076932	230	2	1.06	0.94;
	118	1	595	83.3	0	0	1	1.01170852	-3.54473356	115	2	1.06	0.94;
	119	1	387.7	114.7	0	0	1	1.04299144	-3.41207716	230	2	1.06	0.94;
	120	2	145	58	0	0	1	1.051	0.0736474264	230	2	1.06	0.94;
	121	1	56.5	24.5	0	0	1	1.01550963	-2.74185275	230	2	1.06	0.94;
	122	2	89.5	35.5	0	0	1	1.0435	4.06183608	230	2	1.06	0.94;
	123	1	0	0	0	0	1	1.01610662	-0.660898527	230	2	1.06	0.94;
	124	1	24	14	0	0	1	1.00810603	-0.129941641	230	2	1.06	0.94;
	125	2	0	0	0	0	1	1.0528	4.34695237	230	2	1.06	0.94;
	126	2	0	0	0	0	1	1.0528	8.38900667	230	2	1.06	0.94;
	127	1	63	25	0	0	1	1.05771858	0.306248595	230	2	1.06	0.94;
	128	2	0	0	0	0	1	1.0735	5.25743035	230	2	1.06	0.94;
	129	1	0	0	0	0	1	0.986926461	6.3552045	230	2	1.06	0.94;
	130	1	0	0	0	0	1	1.00483265	4.15036106	230	2	1.06	0.94;
	131	2	17	9	0	0	1	1.0535	9.26393226	230	2	1.06	0.94;
	132	2	0	0	0	0	1	1.0435	10.4836482	230	2	1.06	0.94;
	133	1	70	5	0	34.5	1	0.966416833	-1.77572715	115	2	1.06	0.94;
	134	1	200	50	0	0	1	1.01772432	6.77435779	230	2	1.06	0.94;
	135	2	75	50	0	0	1	0.963	5.16879619	115	2	1.06	0.94;
	136	1	123.5	-24.3	0	0	1	0.984472529	-11.905024	230	2	1.06	0.94;
	137	1	0	0	0	0	1	0.998708597	-11.3807056	230	2	1.06	0.94;
	138	1	33	16.5	0	0	1	0.986644138	-9.79831428	230	2	1.06	0.94;
	139	1	0	0	0	0	1	0.999801002	-12.5301747	230	2	1.06	0.94;
	140	1	35	15	0	0	1	1.03608206	8.86704441	230	2	1.06	0.94;
	141	1	85	24	0	0	1	0.991820234	18.5239014	230	2	1.06	0.94;
	142	1	0	0.4	0	0	1	1.04101055	2.92925257	230	2	1.06	0.94;
	143	1	0	0	0	-212	1	0.983913921	9.68446246	230	2	1.06	0.94;
	144	1	0	0	0	0	1	1.0002115	26.3319726	230	2	1.06	0.94;
	145	1	0	0	0	-103	1	0.997254427	30.2437325	230	2	1.06	0.94;
	146	1	299.9	95.7	0	0	1	0.971492182	-6.88525849	230	2	1.06	0.94;
	147	1	0	0	0	0	1	1.0024311	-4.77892257	230	2	1.06	0.94;
	148	1	0	0	0	0	1	0.987864475	-6.6565185	230	2	1.06	0.94;
	149	2	481.8	205	0	0	1	0.929	0.107696722	115	2	1.06	0.94;
	150	2	763.6	291.1	0	0	1	0.9829	-9.91390028	115	2	1.06	0.94;
	151	1	26.5	0	0	0	1	1.02446611	-6.19958187	115	2	1.06	0.94;
	152	1	163.5	43	0	53	1	0.983654255	-12.7287834	115	2	1.06	0.94;
	153	1	0	0	0	0	1	1.06221362	-2.6666747	115	2	1.06	0.94;
	154	1	176	83	0	0	1	0.973080894	-7.18031412	115	2	1.06	0.94;
	155	2	5	4	0	0	1	1.0522	4.69124598	115	2	1.06	0.94;
	156	2	28	12	0	0	1	1.0077	0.645671077	115	2	1.06	0.94;
	157	1	427.4	173.6	0	0	1	0.93979559	-6.53683379	115	2	1.06	0.94;
	158	1	74	29	0	45	1	0.969910277	-9.33760144	115	2	1.06	0.94;
	159	1	69.5	49.3	0	0	1	0.979330186	-3.06506781	115	2	1.06	0.94;
	160	1	73.4	0	0	0	1	1.05182361	-1.30323336	230	2	1.06	0.94;
	161	1	240.7	89	0	0	1	1.04462767	-4.16512621	230	2	1.06	0.94;
	162	1	40	4	0	0	1	0.971644873	7.14506048	115	2	1.06	0.94;
	163	1	136.8	16.6	0	0	1	1.03858929	-6.82449773	230	2	1.06	0.94;
	164	2	0	0	0	0	1	1.0522	-4.3101142	230	2	1.06	0.94;
	165	2	59.8	24.3	0	0	1	1.065	2.19433228	230	2	1.06	0.94;
	166	2	59.8	24.3	0	0	1	1.065	1.41898758	230	2	1.06	0.94;
	167	1	182.6	43.6	0	0	1	1.0532818	-0.701184856	230	2	1.06	0.94;
	168	1	7	2	0	0	1	1.00275744	-26.013343	66	3	1.06	0.94;
	169	2	0	0	0	-150	1	1.0551	-20.4166352	345	3	1.06	0.94;
	170	2	489	53	0	0	1	1.0435	12.4516603	230	3	1.06	0.94;
	171	1	800	72	0	0	1	0.937458227	-10.9775664	230	3	1.06	0.94;
	172	1	0	0	0	0	1	0.998235718	-27.4703395	66	3	1.06	0.94;
	173	1	0	0	0	0	1	1.04898415	-19.0448444	345	3	1.06	0.94;
	174	1	0	0	0	0	1	1.03590307	-20.5808399	345	3	1.06	0.94;
	175	1	10	3	0	0	1	0.973993322	-24.2286316	115	3	1.06	0.94;
	176	1	43	14	0	0	1	0.992473322	-23.0617145	115	3	1.06	0.94;
	177	2	64	21	0	0	1	1.015	-20.0943342	115	3	1.06	0.94;
	178	1	35	12	0	0	1	0.954313094	-25.446223	115	3	1.06	0.94;
	179	1	27	12	0	0	1	0.956173522	-25.3670613	115	3	1.06	0.94;
	180	1	41	14	0	0	1	0.974031726	-29.2331195	66	1	1.06	0.94;
	181	1	38	13	0	0	1	0.990838643	-24.9694075	66	3	1.06	0.94;
	182	1	42	14	0	0	1	1.00335924	-21.9255337	115	3	1.06	0.94;
	183	1	72	24	0	0	1	0.96670946	-29.5486707	66	3	1.06	0.94;
	184	1	0	-5	0	0	1	0.985553688	-28.5157734	66	3	1.06	0.94;
	185	1	12	2	0	0	1	1.00376814	-28.4732225	66	3	1.06	0.94;
	186	1	-21	-14.2	0	0	1	1.01855537	-28.2950786	66	1	1.06	0.94;
	187	1	7	2	0	0	1	0.9994401	-26.9980162	66	3	1.06	0.94;
	188	1	38	13	0	0	1	1.00477433	-25.6141489	66	3	1.06	0.94;
	189	1	0	0	0	0	1	0.980462408	-23.6028429	115	3	1.06	0.94;
	190	1	96	7	0	0	1	1.00182048	-22.9714934	115	3	1.06	0.94;
	191	1	0	0	0	0	1	1.01326191	-22.2030414	138	3	1.06	0.94;
	192	2	0	0	0	0	1	1.01	-11.3792289	16.5	3	1.06	0.94;
	193	1	22	16	0	0	1	0.991862746	-17.2379632	138	3	1.06	0.94;
	194	1	47	26	0	0	1	0.986631743	-19.9509843	138	3	1.06	0.94;
	195	1	176	105	0	0	1	0.975109765	-22.2713805	138	3	1.06	0.94;
	196	1	100	75	0	0	1	1.02152467	-21.9867633	138	3	1.06	0.94;
	197	1	131	96	0	0	1	1.00754666	-22.4217588	138	3	1.06	0.94;
	198	1	0	0	0	0	1	1.0554202	-20.9473806	345	3	1.06	0.94;
	199	2	285	100	0	0	1	1.008	-21.5197948	138	3	1.06	0.94;
	200	2	171	70	0	0	1	1	-22.2851415	138	3	1.06	0.94;
...
];

%%  PMU voltage data (confidence intervals around measurements)
%	bus_i	VR_MAX	VR_MIN	VI_MAX	VI_MIN
mpc.Vpmu = [
	3	0.990376	0.990376	0.11559	0.11559;
	7	0.988204	0.986844	0.107455	0.107309;
	12	0.993221	0.993221	0.0909192	0.0909192;
	16	1.03051	1.03051	-0.0471973	-0.0471973;
	21	0.996382	0.995002	-0.0340472	-0.0340986;
	26	0.971497	0.971497	-0.0829889	-0.0829889;
	27	1.00217	1.00217	-0.213052	-0.213052;
	31	1.00068	1.00068	-0.198402	-0.198402;
	34	0.99642	0.99642	-0.225666	-0.225666;
	36	1.03623	1.03623	-0.134702	-0.134702;
	43	1.04612	1.04612	-0.0538092	-0.0538092;
	48	0.992267	0.992267	-0.214308	-0.214308;
	58	0.778094	0.778094	-0.547336	-0.547336;
	59	0.849503	0.849503	-0.487393	-0.487393;
	60	0.860517	0.860517	-0.446836	-0.446836;
	65	0.904188	0.904188	-0.403225	-0.403225;
	66	0.889924	0.889924	-0.415192	-0.415192;
	70	0.940042	0.940042	-0.301182	-0.301182;
	72	0.982793	0.982793	-0.134499	-0.134499;
	78	0.980203	0.978691	-0.162907	-0.16313;
	83	0.965274	0.965274	-0.263935	-0.263935;
	86	0.99673	0.995263	-0.229816	-0.230128;
	88	0.928129	0.928129	-0.344495	-0.344495;
	93	0.852604	0.852604	-0.476684	-0.476684;
	101	0.943143	0.941727	-0.240825	-0.241162;
	103	0.995796	0.994439	-0.238111	-0.238421;
	104	0.958613	0.958613	-0.319009	-0.319009;
	109	1.01431	1.01431	0.0990577	0.0990577;
	114	1.01231	1.01231	-0.119527	-0.119527;
	115	1.0472	1.0472	0.0285743	0.0285743;
	119	1.04114	1.04114	-0.0620755	-0.0620755;
	122	1.04088	1.04088	0.0739143	0.0739143;
	130	1.00294	1.00156	0.0727741	0.0726669;
	132	1.02608	1.02608	0.18987	0.18987;
	133	0.965953	0.965953	-0.0299467	-0.0299467;
	136	0.963896	0.962663	-0.202958	-0.203241;
	143	0.970641	0.969217	0.16563	0.165389;
	144	0.897056	0.895723	0.444016	0.443387;
	148	0.981984	0.980556	-0.114428	-0.114589;
	150	0.968223	0.968223	-0.169224	-0.169224;
	151	1.01929	1.01777	-0.110547	-0.110719;
	152	0.95948	0.95948	-0.216735	-0.216735;
	153	1.06174	1.06036	-0.0493891	-0.0494558;
	160	1.05231	1.05088	-0.0239057	-0.0239393;
	164	1.04922	1.04922	-0.0790778	-0.0790778;
	165	1.06422	1.06422	0.0407777	0.0407777;
	167	1.0532	1.0532	-0.0128897	-0.0128897;
	169	0.988819	0.988819	-0.368065	-0.368065;
	182	0.930786	0.930786	-0.374656	-0.374656;
	186	0.896856	0.896856	-0.482808	-0.482808;
	194	0.927419	0.927419	-0.336655	-0.336655;
	196	0.947861	0.946547	-0.382203	-0.382685;
	201	0.967469	0.966027	-0.409344	-0.409931;
	202	0.920723	0.920723	-0.381292	-0.381292;
	203	0.932262	0.930926	-0.363875	-0.364385;
	207	0.974828	0.974828	-0.369075	-0.369075;
	208	0.988646	0.987226	-0.354255	-0.354743;
	209	1.01075	1.01075	-0.244899	-0.244899;
	211	0.959479	0.958002	-0.406531	-0.407091;
	215	0.980962	0.980962	-0.266433	-0.266433;
	217	0.945238	0.943898	-0.35735	-0.357853;
	219	0.962438	0.962438	-0.349042	-0.349042;
	221	0.949151	0.947869	-0.293889	-0.29429;
	223	0.933005	0.933005	-0.337519	-0.337519;
	228	0.883074	0.883074	-0.416171	-0.416171;
	232	1.01383	1.01383	-0.0393268	-0.0393268;
	234	0.953453	0.952107	-0.232971	-0.233259;
	235	0.893935	0.893935	-0.389099	-0.389099;
	237	0.771567	0.770437	-0.592057	-0.592903;
	241	0.840738	0.839512	-0.460782	-0.461404;
	244	1.01567	1.01567	-0.13377	-0.13377;
	248	1.02579	1.02579	0.227448	0.227448;
	251	1.02928	1.02928	0.211076	0.211076;
	252	1.03327	1.03327	-0.19059	-0.19059;
	254	1.00419	1.00419	0.224609	0.224609;
	267	0.941911	0.940486	-0.321008	-0.321416;
	268	0.926525	0.92537	-0.330785	-0.331274;
	270	0.992071	0.992071	-0.198381	-0.198381;
	272	0.9392	0.9392	-0.317412	-0.317412;
	274	0.934492	0.934492	-0.322947	-0.322947;
	275	0.896898	0.896898	-0.355774	-0.355774;
	276	0.919512	0.919512	-0.323334	-0.323334;
	277	0.903533	0.903533	-0.354268	-0.354268;
	280	0.844865	0.843734	-0.39377	-0.394322;
	287	0.855203	0.855203	-0.388136	-0.388136;
	290	0.898678	0.89754	-0.351988	-0.352457;
	291	0.921302	0.921302	-0.331147	-0.331147;
	292	0.944071	0.942603	-0.331616	-0.332082;
	299	0.925563	0.924338	-0.323288	-0.323701;
	300	0.988563	0.988563	-0.324684	-0.324684;
];

%% PMU current injection data (confidence intervals around measurements)
%	bus_i	IR_MAX	IR_MIN	II_MAX	II_MIN
mpc.Ipmu = [
	3	-0.19923	-0.19923	-0.0232528	-0.0232528;
	7	0	0	0	0;
	12	     0	0	     0	0;
	16	     0	0	     0	0;
	21	-0.804023	-0.805172	0.258698	0.258335;
	26	-0.693751	-0.693751	0.193077	0.193077;
	27	-0.512901	-0.512901	0.168908	0.168908;
	31	-0.756291	-0.756291	0.469731	0.469731;
	34	-0.484531	-0.484531	-0.10102	-0.10102;
	36	     0	0	     0	0;
	43	-0.864372	-0.864372	0.292999	0.292999;
	48	-0.191037	-0.191037	0.142039	0.142039;
	58	-0.360512	-0.360512	0.510634	0.510634;
	59	-0.834246	-0.834246	0.92596	0.92596;
	60	-0.431415	-0.431415	0.444816	0.444816;
	65	     0	0	     0	0;
	66	-0.38268	-0.38268	0.335855	0.335855;
	70	     0	0	     0	0;
	72	     0	0	     0	0;
	78	-0.598651	-0.599434	0.0997659	0.0996382;
	83	-0.749922	-0.749922	0.205051	0.205051;
	86	-0.472424	-0.473052	0.109241	0.10909;
	88	-0.0261502	-0.0261502	-0.212691	-0.212691;
	93	-0.162629	-0.162629	0.0909243	0.0909243;
	101	-2.25007	-2.25336	0.70136	0.700386;
	103	-0.483577	-0.484312	-0.493208	-0.49388;
	104	-5.20092	-5.20092	0.508846	0.508846;
	109	     0	0	     0	0;
	114	-1.6006	-1.6006	0.599932	0.599932;
	115	-0.531468	-0.531468	0.159296	0.159296;
	119	-3.64515	-3.64515	1.31901	1.31901;
	122	5.8575	5.8575	-0.432176	-0.432176;
	130	0	0	0	0;
	132	1.99384	1.99384	0.601276	0.601276;
	133	-0.722374	-0.722374	0.0741576	0.0741576;
	136	-1.27752	-1.27918	0.0172733	0.0172499;
	143	0	0	0	0;
	144	0	0	0	0;
	148 0	0	0	0;
	150	-7.40584	-7.40584	2.75079	2.75079;
	151	-0.256959	-0.257358	0.0279514	0.0279169;
	152	-1.525	-1.525	0.792638	0.792638;
	153	0	0	0	0;
	160	-0.697212	-0.698085	0.0158821	0.0158609;
	164	1.87165	1.87165	-0.458073	-0.458073;
	165	10.7748	10.7748	-1.58828	-1.58828;
	167	-1.72843	-1.72843	0.435129	0.435129;
	169	4.44036	4.44036	-0.976147	-0.976147;
	182	-0.336216	-0.336216	0.285742	0.285742;
	186	0.115457	0.115457	-0.220485	-0.220485;
	194	-0.357861	-0.357861	0.410252	0.410252;
	196	-0.632392	-0.633314	1.04806	1.04654;
	201	-0.584707	-0.585473	0.523588	0.522863;
	202	-3.07729	-3.07729	3.79413	3.79413;
	203	-1.24975	-1.2513	1.5525	1.55043;
	207	-1.49804	-1.49804	2.08538	2.08538;
	208	-0.712361	-0.713404	0.721994	0.721002;
	209	3.12772	3.12772	-1.17862	-1.17862;
	211	-3.42074	-3.4259	2.94669	2.9423;
	215	4.92208	4.92208	-4.39744	-4.39744;
	217	-0.0990912	-0.0992271	-0.121988	-0.122174;
	219	     0	0	     0	0;
	221	1.48188	1.4797	-1.00412	-1.00557;
	223	     0	0	     0	0;
	228	-0.20758	-0.20758	0.256364	0.256364;
	232	-0.0284508	-0.0284508	-0.123178	-0.123178;
	234	0.211906	0.211621	0.226497	0.226153;
	235	-0.237209	-0.237209	0.089825	0.089825;
	237	-0.357329	-0.357875	0.00893548	0.00892287;
	241	-0.267549	-0.267971	0.154203	0.153982;
	244	1.01134	1.01134	0.203229	0.203229;
	248	5.98126	5.98126	0.415483	0.415483;
	251	3.85119	3.85119	-1.15575	-1.15575;
	252	2.48779	2.48779	-3.8273	-3.8273;
	254	4.11465	4.11465	-0.141912	-0.141912;
	267	-0.0464399	-0.0465133	-0.00542443	-0.00543187;
	268	-0.022717	-0.0227504	0.0182938	0.018268;
	270	     0	0	     0	0;
	272	     0	0	     0	0;
	274	-0.0402533	-0.0402533	0.0306045	0.0306045;
	275	-0.0127142	-0.0127142	0.0109526	0.0109526;
	276	     0	0	     0	0;
	277	-0.0111826	-0.0111826	0.0095864	0.0095864;
	280	-0.0149815	-0.0150017	0.0145845	0.0145661;
	287	-0.0210991	-0.0210991	0.0199828	0.0199828;
	290	-0.0134624	-0.0134809	0.0110809	0.0110671;
	291	     0	0	     0	0;
	292	-0.377984	-0.378532	0.0037769	0.00377149;
	299	-0.0323717	-0.0324202	0.0248601	0.0248277;
	300	-0.00963602	-0.00963602	0.00731229	0.00731229;
];

%% RTU injection data (confidence intervals around measurements)
%	bus_i	P_MIN	P_MAX	Q_MIN	Q_MAX	V_MIN	V_MAX
mpc.RTU = [
	1	-0.935448	-0.87140899	-0.507664	-0.473989525	1.02432209	1.0316916;
	2	-0.582353	-0.539789411	-0.155775	-0.144901143	1.03205991	1.03944762;
	5	 -3.66853	-3.39073862	 -1.34755	-1.2596398	1.01557911	1.02311607;
	6	 -1.24523	-1.16394632	-0.426028	-0.395345151	1.02714371	1.03450587;
	8	-0.650843	-0.61104154	-0.043086	-0.0400187164	1.01128297	1.01882012;
	9	-0.993093	-0.922832254	-0.442908	-0.416040468	0.999969219	1.00683547;
	10	  -1.5849	-1.47601159	-0.134295	-0.125691772	1.01686035	1.02358061;
	11	-0.860346	-0.801488955	-0.218051	-0.20207917	1.00226786	1.00920647;
	13	-0.600274	-0.561620675	-0.103146	-0.0962817019	0.99461812	1.00124834;
	14	 -1.65718	-1.5471894	-0.620129	-0.580817563	0.995555681	1.00287944;
	15	 -1.31744	-1.21852692	-0.238631	-0.221378897	1.03108757	1.03756978;
	17	 -5.82097	-5.43695445	 -2.27264	-2.12483602	1.06148774	1.0685769;
	19	 -6.25659	-5.81781406	 -1.02762	-0.961879634	0.997017365	1.00448113;
	20	-0.794972	-0.746496316	-0.0103119	-0.00965665248	0.971632217	0.978802768;
	22	-0.216395	-0.202672158	-0.0723315	-0.0678244649	1.04663335	1.05412727;
	24	-0.465887	-0.433970826	-0.124344	-0.115830848	1.01992797	1.02654457;
	25	-0.291098	-0.271330424	-0.0928528	-0.0871173106	0.994657823	1.00244208;
	32	 -1.60137	-1.49525459	-0.185833	-0.173196905	1.01712113	1.02433844;
	35	-0.894354	-0.830748132	-3.5249e-03	3.61110234e-03	1.02521408	1.03315421;
	37	-0.403734	-0.377704259	-0.093079	-0.0867359633	0.997154179	1.0046734;
	38	 -2.01532	-1.88101007	     -0.3	-0.280873019	1.00537854	1.01178099;
	41	-0.602943	-0.557329368	-0.121944	-0.113448442	0.974146325	0.981349535;
	42	-0.422927	-0.397411602	-0.195707	-0.183170315	0.998124876	1.00545291;
	44	0.0481625	0.0516135388	-0.0516922	-0.0480975764	1.02129418	1.02909202;
	45	-0.632581	-0.590266229	-0.290989	-0.269898461	0.994572175	1.0015836;
	46	-0.714721	-0.668538528	-0.0311816	-0.0290687093	0.992864512	0.999494938;
	47	-0.103024	-0.0969467975	-0.0103504	-0.00961350033	1.00172039	1.00817766;
	49	 -1.01283	-0.947971116	-0.207769	-0.192988873	1.02993239	1.03721781;
	50	-0.145116	-0.13511078	-0.0103193	-0.00962833285	0.988017311	0.995057446;
	51	 -2.24941	-2.09492472	 -1.09937	-1.02029708	0.975018199	0.982303486;
	53	 -2.34578	-2.20132134	 -1.14215	-1.05649967	0.986891717	0.994470722;
	55	-0.721653	-0.676974911	-0.0521195	-0.0487342581	0.954838461	0.961528276;
	61	 -2.32468	-2.17188766	-0.732138	-0.687828415	0.973959383	0.980727461;
	63	 -2.15216	-2.00600643	-0.754925	-0.705383706	0.959973041	0.966628598;
	64	-0.767792	-0.71674086	  -0.2887	-0.269426475	0.980530556	0.987184149;
	67	-0.289649	-0.270866999	-0.0724592	-0.0674547386	0.983328748	0.99045561;
	69	    3.252	3.51449765	  1.15584	1.24579767	1.02121924	1.02831146;
	74	-0.455415	-0.425101188	-3.17613e-03	3.44495602e-03	1.02851992	1.0351066;
	75	-0.686322	-0.637366586	-3.8428e-03	3.59766516e-03	1.02341972	1.0304333;
	76	  1.32216	1.42307164	  0.42332	0.455090836	1.04874	1.05604458;
	77	  2.65208	2.83720473	 0.298941	0.321034639	1.04806219	1.05616391;
	79	-0.412466	-0.385189238	-3.17955e-03	3.18410754e-03	1.01470882	1.02201951;
	80	0.0125845	0.0134184615	-0.111169	-0.102688591	0.996757172	1.00375572;
	81	-0.868119	-0.804710888	-3.6045e-03	3.76411644e-03	0.985604651	0.993184203;
	84	-0.330829	-0.309271702	-3.13413e-03	3.8109421e-03	1.02559949	1.03227724;
	85	-0.0887563	-0.0833101617	-3.29057e-03	3.90413101e-03	0.992548377	0.998937597;
	87	-0.0474245	-0.0442811684	-3.29076e-03	3.82499829e-03	1.00582894	1.01268995;
	89	-0.316916	-0.29703763	-3.08637e-03	3.78015808e-03	0.9722595	0.978359604;
	90	-0.651202	-0.606887111	-3.81645e-03	3.95588232e-03	0.970236022	0.976329663;
	91	-0.201993	-0.190071102	-3.5991e-03	3.75978776e-03	0.971243061	0.977784652;
	92	-0.272056	-0.253431635	-3.25252e-03	3.44621495e-03	0.967106274	0.973629782;
	97	-0.146577	-0.135716214	 -6.75835	-6.29490354	0.926192691	0.932921737;
	98	  18.6343	20.027431	  10.1589	10.869627	1.04032268	1.04751419;
	99	 -8.07114	-7.48767125	 -2.22398	-2.07295567	0.955469233	0.961923502;
	100	 -5.51657	-5.14723252	-0.571192	-0.529385045	0.983895293	0.990277858;
	102	-0.809768	-0.751182793	-0.0145491	-0.0134574145	0.997414278	1.00361474;
	105	-0.600631	-0.556144641	-0.0528879	-0.0492835118	0.993851389	1.00160927;
	106	 -3.93737	-3.67069553	-0.384206	-0.356252411	0.996637916	1.00407362;
	116	 -2.84156	-2.62679604	 -1.03311	-0.95890263	1.04378005	1.05063302;
	117	 -10.5096	-9.81408306	 0.899413	0.969691143	1.05100971	1.05873129;
	118	 -6.13222	-5.71303658	 -0.86561	-0.803089621	1.0081266	1.0154193;
	120	  1.31629	1.40359169	0.0683499	0.0731925388	1.04737127	1.05434832;
	121	-0.584211	-0.543890063	-0.254522	-0.235294954	1.01226664	1.01856169;
	124	-0.249222	-0.232550313	-0.145515	-0.134958414	1.00450688	1.01202546;
	125	 0.809394	0.872087627	 0.336835	0.362981231	1.049564	1.05680324;
	126	  2.10142	2.24967185	-0.515353	-0.482921731	1.04864505	1.05685284;
	127	 -0.65357	-0.607444631	-0.258825	-0.240466689	1.05368987	1.06090277;
	128	 0.989373	1.0691737	 0.482266	0.51605436	1.07018509	1.07742333;
	131	  3.41178	3.66694372	-0.612062	-0.570869829	1.05020279	1.05718968;
	134	 -2.06491	-1.93952936	-0.518479	-0.481966134	1.01384691	1.02147799;
	135	-0.777962	-0.724900034	-0.362847	-0.337488157	0.959162367	0.966120865;
	138	-0.342624	-0.317569503	-0.171491	-0.158924948	0.982967629	0.99040599;
	140	-0.362334	-0.337815009	-0.155861	-0.14403932	1.0324212	1.04003932;
	141	-0.875953	-0.8239475	-0.248038	-0.232690445	0.988581059	0.994926254;
	142	-3.88512e-03	3.72645703e-03	-0.00413844	-0.00386442776	1.03761983	1.04482478;
	146	 -3.10464	-2.89300695	-0.988045	-0.926277051	0.967743855	0.974805982;
	149	 -2.85488	-2.68053652	 -1.18361	-1.1105381	0.92532156	0.932645575;
	154	 -1.82438	-1.69627918	-0.861925	-0.804418067	0.970131759	0.976402585;
	155	  2.16126	2.30631949	 0.344183	0.370233656	1.04867794	1.05599825;
	156	  0.54146	0.582158645	 0.221297	0.23871466	1.00417644	1.01162148;
	157	 -4.44206	-4.11667734	 -1.79756	-1.681252	0.936110515	0.942673082;
	158	-0.764089	-0.71379621	-0.298834	-0.280363131	0.96693757	0.973480008;
	159	-0.718296	-0.670833322	-0.507926	-0.477941647	0.975424329	0.983130749;
	161	 -2.48114	-2.32231174	-0.916938	-0.860162138	1.04087279	1.04857746;
	162	-0.414447	-0.387690864	-0.0412906	-0.0387821183	0.967792863	0.97475062;
	163	 -1.42249	-1.31772597	-0.171076	-0.159391447	1.03476992	1.04244667;
	166	  11.0244	11.7505101	  2.44233	2.62641912	1.06122911	1.06823978;
	168	 -0.07219	-0.0677522789	-0.0206928	-0.0193009019	0.999626247	1.00591705;
	170	  14.3631	15.3495346	  6.16688	6.58847461	1.03968029	1.0473247;
	171	 -8.26264	-7.74106394	-0.744405	-0.697356669	0.934106519	0.940273892;
	175	-0.103363	-0.0965047756	-0.0311119	-0.0289246304	0.970587718	0.977444863;
	176	-0.445003	-0.41456324	 -0.14427	-0.135758246	0.989299399	0.995841766;
	177	  3.48092	3.7281318	 0.699945	0.749864242	1.011365	1.01853971;
	178	-0.363387	-0.337509417	-0.123995	-0.11548284	0.951412868	0.957615517;
	179	-0.279358	-0.259586809	-0.124577	-0.116220882	0.953221408	0.959173998;
	180	-0.423838	-0.394472001	-0.144943	-0.134695138	0.97020251	0.977333174;
	181	-0.394597	-0.367591805	-0.135007	-0.124934729	0.98696918	0.994679341;
	183	-0.745291	-0.691283168	-0.249342	-0.232145806	0.963546817	0.970383678;
	184	-3.03417e-03	3.79473474e-03	 0.048247	0.0518620439	0.982176521	0.988989859;
	185	-0.124523	-0.115898123	-0.020704	-0.0192373131	1.00030404	1.00746584;
	187	-0.0721772	-0.0676764413	-0.0206741	-0.0192933929	0.996144639	1.00318873;
	188	-0.393925	-0.365148209	-0.134197	-0.125280699	1.00159507	1.00808865;
	190	-0.990005	-0.922224506	-0.072205	-0.0672128749	0.998108204	1.00502979;
	192	  2.61694	2.8171596	 0.427493	0.456880548	1.00638705	1.01380881;
	193	-0.226944	-0.212098356	 -0.16554	-0.154729287	0.988157778	0.995533233;
	195	 -1.82693	-1.69826712	 -1.09021	-1.01678904	0.972063162	0.978779721;
	197	 -1.35588	-1.26115723	-0.997139	-0.925797428	1.00372571	1.01112068;
	199	 -1.91951	-1.7893463	-0.667222	-0.618280186	1.0048858	1.01147211;
	200	  2.70408	2.9008077	  0.87211	0.938770722	0.996134215	1.00326807;
	204	 -4.25957	-3.96454686	-0.412827	-0.385586796	0.942048029	0.948673233;
	206	 -2.44089	-2.26380997	 -1.09941	-1.02210277	0.996905207	1.0039419;
	210	 -1.64189	-1.52909045	 -1.10854	-1.03645645	1.05014969	1.05750168;
	212	 -1.08043	-1.00477198	-0.821143	-0.764774146	0.996070891	1.00390469;
	213	 -5.93162	-5.50343317	 -2.52239	-2.35295346	1.03489955	1.04264213;
	214	 -2.77656	-2.60056236	 -1.62565	-1.51675924	1.00643738	1.0129096;
	218	  5.31273	5.70881685	 0.661005	0.708307215	0.996940412	1.00388107;
	220	   5.5639	5.94922241	-0.368261	-0.340574038	1.04680273	1.05377075;
	222	 0.731664	0.787852591	 0.472643	0.5113379	1.00597762	1.01328938;
	224	-0.628407	-0.585828127	-0.310653	-0.288688932	0.96759752	0.974201664;
	225	-0.797894	-0.74074998	-0.342165	-0.31923759	0.961468654	0.968400052;
	226	-0.629771	-0.58988255	 -0.31188	-0.289209098	0.965331595	0.972639296;
	227	-0.300222	-0.279152595	-0.144722	-0.134624902	0.973358689	0.979938013;
	229	 0.222185	0.238933841	 0.164482	0.176501933	1.01738331	1.02410619;
	230	 0.319081	0.342249494	 0.284489	0.305048173	1.02159854	1.02873751;
	231	 -1.19391	-1.1231879	  0.23192	0.249360067	1.01151341	1.01889139;
	233	-0.0248958	-0.0232769835	 0.037631	0.0401987716	0.996464805	1.00350976;
	236	 -1.50744	-1.39611277	   0.3368	0.36134042	0.939363956	0.94658236;
	238	-0.144377	-0.134532193	-0.0258857	-0.0241725944	0.95681489	0.963747689;
	239	 0.107421	0.114714362	0.0135306	0.0144589082	0.997618555	1.00400583;
	240	-0.522713	-0.48899971	-0.180163	-0.168377339	0.974192044	0.981129791;
	242	   1.0994	1.17914349	-0.791532	-0.741904418	1.02729578	1.03478786;
	243	 -1.03737	-0.967275763	-0.302798	-0.28293846	1.00935211	1.01627253;
	247	  4.52098	4.85351463	  1.34416	1.43900311	1.04669355	1.05465863;
	249	  11.6261	12.512939	  4.04778	4.36360516	1.02834456	1.03574554;
	250	  2.24931	2.42225847	 0.502347	0.535173888	1.01112822	1.01798377;
	253	  1.78409	1.92084204	0.0609473	0.0653847235	1.04727574	1.05418728;
	255	  4.80693	5.17807667	  1.47638	1.58142146	1.04646129	1.05319952;
	256	 0.355826	0.382361574	 0.402166	0.428978122	1.01085014	1.01786213;
	257	  4.38071	4.72762868	 0.374297	0.400820701	1.04697442	1.05486079;
	258	 0.435237	0.466397585	 0.240603	0.260027997	0.993120384	1.00064351;
	259	  1.59131	1.71341755	 0.863594	0.932481753	1.01775481	1.02482085;
	260	   3.8419	4.1531333	  1.15986	1.24351095	1.01085487	1.01811517;
	261	  3.86728	4.13741566	  1.44974	1.55288312	0.998452474	1.00567359;
	262	  1.12367	1.20233141	 0.835538	0.899055798	0.985894857	0.992440566;
	263	  12.4551	13.3756315	  3.12897	3.34693197	1.04696835	1.05403614;
	264	  6.72543	7.21132617	  2.72874	2.94132521	1.04730161	1.05453164;
	265	  5.32334	5.73260216	  1.31505	1.42357047	1.01052347	1.01825633;
	269	-0.00889857	-0.00831489975	-0.00290589	-0.00270153812	0.973779724	0.980489662;
	278	-0.00465133	-0.00433813728	-0.00165107	-0.00153898049	0.961465629	0.967911561;
	279	-0.00465828	-0.0043561451	-0.00166338	-0.00154252533	0.96269307	0.968689747;
	281	-0.0143597	-0.0133690273	-0.00497472	-0.00464778708	0.940452284	0.946913902;
	282	-0.0195303	-0.0181498191	-0.00669956	-0.00626845376	0.925555311	0.931923834;
	283	-0.0159855	-0.0149801597	-0.00560818	-0.0051850755	0.993832252	1.00093541;
	284	-0.0171395	-0.0159546082	-0.0059948	-0.00556992001	0.946894463	0.953743787;
	285	-0.0314709	-0.0292915286	-0.0103099	-0.00968118966	0.956437401	0.963103762;
	286	-0.0191974	-0.0180154889	-0.00664736	-0.0061732255	0.95408783	0.960025449;
	288	-0.0104898	-0.00972439752	-0.00361549	-0.00339214598	0.960117019	0.967241921;
	289	-0.0083586	-0.00784552715	-0.00289213	-0.00269761043	0.947263162	0.953358198;
	293	-0.310803	-0.289163675	-0.238553	-0.221869803	0.975496116	0.98197613;
	294	-0.274742	-0.255867468	 0.108235	0.115408166	0.996701209	1.00360768;
	295	 0.480869	0.516759433	 0.213388	0.227887396	0.996543617	1.00398527;
	296	0.0771299	0.0829239114	0.0392978	0.0420210943	0.996510808	1.00320613;
	297	-0.010522	-0.00986676801	-0.00362932	-0.00337691612	0.971903526	0.979264404;
	298	-0.0105775	-0.00986170107	-0.0036294	-0.00337425876	0.977317686	0.983864512;
];

%% generator data
%	bus	Pg	Qg	Qmax	Qmin	Vg	mBase	status	Pmax	Pmin	Pc1	Pc2	Qc1min	Qc1max	Qc2min	Qc2max	ramp_agc	ramp_10	ramp_30	ramp_q	apf
mpc.gen = [
	8	0	9.84765532	10	-10	1.0153	100	1	100	0	0	0	0	0	0	0	0	0	0	0	0;
	10	0	20.0086566	20	-20	1.0205	100	1	100	0	0	0	0	0	0	0	0	0	0	0	0;
	19	0	20.3004056	20	-20	1.001	100	1	100	0	0	0	0	0	0	0	0	0	0	0	0;
	55	0	24.9702381	25	-25	0.9583	100	1	100	0	0	0	0	0	0	0	0	0	0	0	0;
	63	0	34.2649306	35	12	0.9632	100	1	100	0	0	0	0	0	0	0	0	0	0	0	0;
	69	375	132.924091	240	-240	1.025	100	1	475	0	0	0	0	0	0	0	0	0	0	0	0;
	76	155	44.028759	96	-11	1.052	100	1	255	0	0	0	0	0	0	0	0	0	0	0	0;
	77	290	30.9624249	153	-153	1.052	100	1	390	0	0	0	0	0	0	0	0	0	0	0	0;
	80	68	-10.6931897	56	-30	1	100	1	168	0	0	0	0	0	0	0	0	0	0	0	0;
	88	117	20.6412947	77	-24	0.99	100	1	217	0	0	0	0	0	0	0	0	0	0	0	0;
	98	1930	1050.70103	1500	-500	1.0435	100	1	2030	0	0	0	0	0	0	0	0	0	0	0	0;
	103	240	119.945807	120	-60	1.0233	100	1	340	0	0	0	0	0	0	0	0	0	0	0	0;
	104	0	199.835577	200	-25	1.0103	100	1	100	0	0	0	0	0	0	0	0	0	0	0	0;
	117	0	228.612653	350	-125	1.055	100	1	100	0	0	0	0	0	0	0	0	0	0	0	0;
	120	281	65.0988225	75	-50	1.051	100	1	381	0	0	0	0	0	0	0	0	0	0	0	0;
	122	696	123.779519	300	-100	1.0435	100	1	796	0	0	0	0	0	0	0	0	0	0	0	0;
	125	84	34.9978006	35	-15	1.0528	100	1	184	0	0	0	0	0	0	0	0	0	0	0	0;
	126	217	-49.9638578	100	-50	1.0528	100	1	317	0	0	0	0	0	0	0	0	0	0	0	0;
	128	103	49.9696687	50	-25	1.0735	100	1	203	0	0	0	0	0	0	0	0	0	0	0	0;
	131	372	-49.9279071	175	-50	1.0535	100	1	472	0	0	0	0	0	0	0	0	0	0	0	0;
	132	216	-23.8387854	90	-50	1.0435	100	1	316	0	0	0	0	0	0	0	0	0	0	0	0;
	135	0	15.0259498	15	-10	0.963	100	1	100	0	0	0	0	0	0	0	0	0	0	0	0;
	149	205	90.2062953	90	-40	0.929	100	1	305	0	0	0	0	0	0	0	0	0	0	0	0;
	150	0	150.087228	150	-50	0.9829	100	1	100	0	0	0	0	0	0	0	0	0	0	0	0;
	155	228	39.7183766	90	-45	1.0522	100	1	328	0	0	0	0	0	0	0	0	0	0	0	0;
	156	84	34.9896356	35	-15	1.0077	100	1	184	0	0	0	0	0	0	0	0	0	0	0	0;
	164	200	33.2615504	80	-50	1.0522	100	1	300	0	0	0	0	0	0	0	0	0	0	0	0;
	165	1200	237.265437	400	-100	1.065	100	1	1300	0	0	0	0	0	0	0	0	0	0	0	0;
	166	1200	278.321739	400	-100	1.065	100	1	1300	0	0	0	0	0	0	0	0	0	0	0	0;
	169	475	-66.9110039	300	-300	1.0551	100	1	575	0	0	0	0	0	0	0	0	0	0	0	0;
	170	1973	692.066762	1000	-1000	1.0435	100	1	2073	0	0	0	0	0	0	0	0	0	0	0	0;
	177	424	93.4228581	260	-260	1.015	100	1	524	0	0	0	0	0	0	0	0	0	0	0	0;
	192	272	44.0824703	150	-150	1.01	100	1	372	0	0	0	0	0	0	0	0	0	0	0	0;
	199	100	35.720852	60	-60	1.008	100	1	200	0	0	0	0	0	0	0	0	0	0	0	0;
	200	450	160.314443	320	-320	1	100	1	550	0	0	0	0	0	0	0	0	0	0	0	0;
	201	250	161.385346	300	-300	1.05	100	1	350	0	0	0	0	0	0	0	0	0	0	0	0;
	206	303	262.957839	300	-300	1	100	1	403	0	0	0	0	0	0	0	0	0	0	0	0;
	209	345	42.531415	250	-250	1.04	100	1	445	0	0	0	0	0	0	0	0	0	0	0	0;
	212	300	132.534173	500	-500	1	100	1	400	0	0	0	0	0	0	0	0	0	0	0	0;
	215	600	300.231551	300	-300	1.0165	100	1	700	0	0	0	0	0	0	0	0	0	0	0	0;
	217	250	164.077496	200	-200	1.01	100	1	350	0	0	0	0	0	0	0	0	0	0	0	0;
	218	550	68.3847608	400	-400	1	100	1	650	0	0	0	0	0	0	0	0	0	0	0	0;
	220	575.43	-35.4424569	600	-600	1.05	100	1	675.43	0	0	0	0	0	0	0	0	0	0	0	0;
	221	170	51.7618565	100	40	0.993	100	1	270	0	0	0	0	0	0	0	0	0	0	0	0;
	222	84	52.2004191	80	40	1.01	100	1	184	0	0	0	0	0	0	0	0	0	0	0	0;
	247	467	139.607886	210	-210	1.0507	100	1	567	0	0	0	0	0	0	0	0	0	0	0	0;
	248	623	93.4226956	280	-280	1.0507	100	1	723	0	0	0	0	0	0	0	0	0	0	0	0;
	249	1210	420.017188	420	-420	1.0323	100	1	1310	0	0	0	0	0	0	0	0	0	0	0	0;
	250	234	51.8139888	100	-100	1.0145	100	1	334	0	0	0	0	0	0	0	0	0	0	0	0;
	251	372	200.248716	224	-224	1.0507	100	1	472	0	0	0	0	0	0	0	0	0	0	0	0;
	252	330	348.048024	350	0	1.0507	100	1	430	0	0	0	0	0	0	0	0	0	0	0	0;
	253	185	6.32026084	120	0	1.0507	100	1	285	0	0	0	0	0	0	0	0	0	0	0	0;
	254	410	106.669472	224	-224	1.029	100	1	510	0	0	0	0	0	0	0	0	0	0	0	0;
	255	500	153.345384	200	-200	1.05	100	1	600	0	0	0	0	0	0	0	0	0	0	0	0;
	256	37	41.5624864	42	0	1.0145	100	1	137	0	0	0	0	0	0	0	0	0	0	0	0;
	257	455.946477	38.8383995	10	0	1.0507	100	1	2399.005	0	0	0	0	0	0	0	0	0	0	0	0;
	258	45	25.0134783	25	0	0.9967	100	1	145	0	0	0	0	0	0	0	0	0	0	0	0;
	259	165	89.906631	90	-90	1.0212	100	1	265	0	0	0	0	0	0	0	0	0	0	0	0;
	260	400	120.635199	150	-150	1.0145	100	1	500	0	0	0	0	0	0	0	0	0	0	0	0;
	261	400	150.005105	150	0	1.0017	100	1	500	0	0	0	0	0	0	0	0	0	0	0	0;
	262	116	86.930218	87	0	0.9893	100	1	216	0	0	0	0	0	0	0	0	0	0	0	0;
	263	1292	324.365709	600	-100	1.0507	100	1	1392	0	0	0	0	0	0	0	0	0	0	0	0;
	264	700	283.926593	325	-125	1.0507	100	1	800	0	0	0	0	0	0	0	0	0	0	0	0;
	265	553	136.924029	300	-200	1.0145	100	1	653	0	0	0	0	0	0	0	0	0	0	0	0;
	267	0	2.00377756	2	-2	0.9945	100	1	100	0	0	0	0	0	0	0	0	0	0	0	0;
	292	0	12.1975402	17.35	-17.35	1	100	1	100	0	0	0	0	0	0	0	0	0	0	0	0;
	294	0	11.1681745	12.83	-12.8	1	100	1	100	0	0	0	0	0	0	0	0	0	0	0	0;
	295	50	22.0047757	38	-38	1	100	1	150	0	0	0	0	0	0	0	0	0	0	0	0;
	296	8	4.07232269	6	-6	1	100	1	108	0	0	0	0	0	0	0	0	0	0	0	0;
];

%% branch data
%	fbus	tbus	r	x	b	rateA	rateB	rateC	ratio	angle	status	angmin	angmax	Pf	Qf	Pt	Qt
mpc.branch = [
	31	266	6e-05	0.00046	0	0	0	75	1.0082	0	1	-360	360	79.6325	8.7266	-79.6287	-8.6978;
	266	270	0.0008	0.00348	0	0	0	0	0	0	1	-360	360	36.2022	-6.4602	-36.1917	6.5062;
	266	271	0.02439	0.43682	0	0	0	0	0.9668	0	1	-360	360	26.4347	10.3635	-26.2552	-7.1480;
	266	273	0.03624	0.64898	0	0	0	0	0.9796	0	1	-360	360	16.9918	4.7945	-16.8859	-2.8982;
	270	292	0.01578	0.37486	0	0	0	0	1.0435	0	1	-360	360	36.0358	-6.8328	-35.8100	12.1975;
	270	293	0.01578	0.37486	0	0	0	0	0.9391	0	1	-360	360	30.2355	28.5933	-30.0000	-23.0000;
	270	294	0.01602	0.38046	0	0	0	0	1.0435	0	1	-360	360	27.9204	-7.3703	-27.7783	10.7453;
	270	295	0	0.152	0	0	0	0	1.0435	0	1	-360	360	-50.0000	-17.4688	50.0000	22.0048;
	270	296	0	0.8	0	0	0	0	1.0435	0	1	-360	360	-8.0000	-3.4277	8.0000	4.0723;
	271	272	0.05558	0.24666	0	0	0	0	0	0	1	-360	360	9.4694	2.6550	-9.4160	-2.4178;
	271	268	0.11118	0.49332	0	0	0	0	0	0	1	-360	360	8.3929	2.2465	-8.3094	-1.8763;
	271	268	0.11118	0.49332	0	0	0	0	0	0	1	-360	360	8.3929	2.2465	-8.3094	-1.8763;
	273	267	0.07622	0.43286	0	0	0	0	0	0	1	-360	360	6.5233	0.7416	-6.4906	-0.5558;
	273	267	0.07622	0.43286	0	0	0	0	0	0	1	-360	360	6.5233	0.7416	-6.4906	-0.5558;
	267	274	0.0537	0.07026	0	0	0	0	0	0	1	-360	360	7.3533	2.5694	-7.3204	-2.5263;
	274	276	1.1068	0.95278	0	0	0	0	0	0	1	-360	360	0.9523	0.3499	-0.9406	-0.3399;
	274	275	0.44364	2.8152	0	0	0	0	1	0	1	-360	360	1.6181	0.6163	-1.6045	-0.5300;
	267	277	0.50748	3.2202	0	0	0	0	1	0	1	-360	360	1.4279	0.5461	-1.4159	-0.4700;
	276	278	0.66688	3.944	0	0	0	0	1	0	1	-360	360	0.4704	0.1704	-0.4686	-0.1600;
	276	279	0.6113	3.6152	0	0	0	0	1	0	1	-360	360	0.4703	0.1695	-0.4686	-0.1600;
	272	297	0.4412	2.9668	0	0	0	0	1	0	1	-360	360	1.0734	0.3894	-1.0676	-0.3500;
	272	298	0.30792	2.057	0	0	0	0	1	0	1	-360	360	1.0721	0.3770	-1.0681	-0.3500;
	272	268	0.0558	0.24666	0	0	0	0	0	0	1	-360	360	7.2704	1.6514	-7.2389	-1.5119;
	268	280	0.73633	4.6724	0	0	0	0	1	0	1	-360	360	1.9618	0.8619	-1.9268	-0.6400;
	268	281	0.76978	4.8846	0	0	0	0	1	0	1	-360	360	1.4726	0.6082	-1.4524	-0.4800;
	268	282	0.75732	4.8056	0	0	0	0	1	0	1	-360	360	2.0143	0.8911	-1.9763	-0.6500;
	268	291	0.07378	0.06352	0	0	0	0	0	0	1	-360	360	4.4069	1.5834	-4.3902	-1.5690;
	291	269	0.03832	0.02894	0	0	0	0	0	0	1	-360	360	4.3902	1.5690	-4.3815	-1.5624;
	269	288	0.36614	2.456	0	0	0	0	1	0	1	-360	360	1.0613	0.3828	-1.0564	-0.3500;
	269	289	1.0593	5.4536	0	0	0	0	1	0	1	-360	360	0.8554	0.3280	-0.8461	-0.2800;
	269	290	0.1567	1.6994	0	0	0	0	1	0	1	-360	360	1.6048	0.5717	-1.6000	-0.5200;
	268	283	0.13006	1.3912	0	0	0	0	1	0	1	-360	360	1.6348	-1.1142	-1.6296	1.1705;
	268	284	0.54484	3.4572	0	0	0	0	1	0	1	-360	360	1.7616	0.7089	-1.7413	-0.5800;
	268	285	0.15426	1.6729	0	0	0	0	1	0	1	-360	360	3.0471	1.1849	-3.0300	-1.0000;
	268	286	0.3849	2.5712	0	0	0	0	1	0	1	-360	360	1.9693	0.7584	-1.9516	-0.6400;
	268	287	0.4412	2.9668	0	0	0	0	1	0	1	-360	360	2.7440	1.1625	-2.7035	-0.8900;
	273	299	0.23552	0.99036	0	0	0	0	0	0	1	-360	360	3.8393	1.4151	-3.8000	-1.2500;
	294	300	0	0.75	0	0	0	0	0.9583	0	1	-360	360	1.2983	0.4228	-1.2983	-0.4100;
	1	5	0.001	0.006	0	0	0	0	0	0	1	-360	360	402.0664	96.8471	-400.4493	-87.1443;
	2	6	0.001	0.009	0	0	0	0	0	0	1	-360	360	158.5051	31.0765	-158.2617	-28.8860;
	2	8	0.006	0.027	0.054	0	0	0	0	0	1	-360	360	365.1103	9.7119	-357.6398	18.2280;
	3	7	0	0.003	0	0	0	0	0	0	1	-360	360	260.1432	123.6999	-260.1432	-121.1961;
	3	18	0.008	0.069	0.139	0	0	0	0	0	1	-360	360	139.1342	5.5837	-137.5640	-5.6511;
	3	129	0.001	0.007	0	0	0	0	0	0	1	-360	360	92.8992	131.8195	-92.6376	-129.9884;
	4	16	0.002	0.019	1.127	0	0	0	0	0	1	-360	360	712.5467	-93.0920	-702.9694	64.2337;
	5	9	0.006	0.029	0.018	0	0	0	0	0	1	-360	360	119.3314	31.4300	-118.4482	-29.0022;
	7	12	0.001	0.009	0.07	0	0	0	0	0	1	-360	360	180.4869	-65.6835	-180.1176	62.0718;
	7	110	0.001	0.007	0.014	0	0	0	0	0	1	-360	360	46.0360	95.8765	-45.9200	-96.4363;
	8	11	0.013	0.0595	0.033	0	0	0	0	0	1	-360	360	1.5457	14.4169	-1.5127	-17.6351;
	8	14	0.013	0.042	0.081	0	0	0	0	0	1	-360	360	293.0941	-36.7972	-282.1264	64.0132;
	9	11	0.006	0.027	0.013	0	0	0	0	0	1	-360	360	22.4482	-13.9978	-22.4076	12.8689;
	11	13	0.008	0.034	0.018	0	0	0	0	0	1	-360	360	153.4094	-9.3010	-151.5422	15.4306;
	12	20	0.002	0.015	0.118	0	0	0	0	0	1	-360	360	420.6284	98.4617	-416.8523	-81.6208;
	13	19	0.006	0.034	0.016	0	0	0	0	0	1	-360	360	93.5422	-25.4306	-92.9782	27.0290;
	14	15	0.014	0.042	0.097	0	0	0	0	0	1	-360	360	122.1264	-124.0132	-118.0433	126.2312;
	15	31	0.065	0.248	0.121	0	0	0	0	0	1	-360	360	19.9581	-5.3136	-19.7153	-6.5297;
	15	74	0.099	0.248	0.035	0	0	0	0	0	1	-360	360	17.2146	-7.1972	-16.9141	4.2146;
	15	75	0.096	0.363	0.048	0	0	0	0	0	1	-360	360	13.3171	-3.7321	-13.1568	-0.7620;
	16	36	0.002	0.022	1.28	0	0	0	0	0	1	-360	360	401.1970	-150.1404	-398.0455	46.8182;
	18	20	0.002	0.018	0.036	0	0	0	0	0	1	-360	360	-45.9366	40.4622	46.0173	-43.1830;
	18	72	0.013	0.08	0.151	0	0	0	0	0	1	-360	360	183.5006	-34.8111	-178.8583	48.6704;
	19	21	0.016	0.033	0.015	0	0	0	0	0	1	-360	360	-15.1218	21.0365	15.2341	-22.3008;
	19	26	0.069	0.186	0.098	0	0	0	0	0	1	-360	360	24.3134	0.5183	-23.8860	-8.9345;
	20	23	0.004	0.034	0.28	0	0	0	0	0	1	-360	360	-227.3784	-65.5086	229.6677	57.4955;
	21	22	0.052	0.111	0.05	0	0	0	0	0	1	-360	360	-96.2341	-0.6992	101.0876	5.8214;
	22	24	0.019	0.039	0.018	0	0	0	0	0	1	-360	360	126.4690	12.0243	-123.6839	-8.2425;
	23	231	0.007	0.068	0.134	0	0	0	0	0	1	-360	360	116.7756	-28.2038	-115.8000	24.0000;
	24	25	0.036	0.071	0.034	0	0	0	0	0	1	-360	360	78.6839	-3.7575	-76.5543	4.4820;
	25	26	0.045	0.12	0.065	0	0	0	0	0	1	-360	360	46.0778	0.3052	-45.1140	-4.0655;
	25	232	0.043	0.13	0.014	0	0	0	0	0	1	-360	360	2.4765	-13.7872	-2.4000	12.6000;
	27	28	0	0.063	0	0	0	0	0	0	1	-360	360	-121.1231	-23.1091	121.1231	32.2343;
	27	32	0.0025	0.012	0.013	0	0	0	0	0	1	-360	360	85.5338	18.1942	-85.3511	-18.6761;
	27	34	0.006	0.029	0.02	0	0	0	0	0	1	-360	360	47.9536	-0.3732	-47.8222	-1.0849;
	27	35	0.007	0.043	0.026	0	0	0	0	0	1	-360	360	-67.3643	-0.7119	67.6670	-0.1710;
	28	36	0.001	0.008	0.042	0	0	0	0	0	1	-360	360	-121.1231	-32.2343	121.2666	28.8120;
	29	60	0.012	0.06	0.008	0	0	0	0	0	1	-360	360	48.5929	0.5202	-48.2951	0.2117;
	29	63	0.006	0.014	0.002	0	0	0	0	0	1	-360	360	113.0429	39.1759	-112.1403	-37.2578;
	29	64	0.01	0.029	0.003	0	0	0	0	0	1	-360	360	-48.0970	-10.5091	48.3513	10.9586;
	30	73	0.004	0.027	0.043	0	0	0	0	0	1	-360	360	-113.5388	-35.9720	114.0989	35.3814;
	31	32	0.008	0.047	0.008	0	0	0	0	0	1	-360	360	49.7780	-8.6308	-49.5823	8.9476;
	31	34	0.022	0.064	0.007	0	0	0	0	0	1	-360	360	38.7530	-15.4779	-38.3872	15.8124;
	31	35	0.01	0.036	0.02	0	0	0	0	0	1	-360	360	-43.8867	-14.4306	44.0890	13.0588;
	31	43	0.017	0.081	0.048	0	0	0	0	0	1	-360	360	-185.9191	15.8059	191.6201	6.2265;
	31	74	0.102	0.254	0.033	0	0	0	0	0	1	-360	360	-2.0519	-5.5383	2.0703	2.1107;
	31	75	0.047	0.127	0.016	0	0	0	0	0	1	-360	360	-1.5904	-5.9252	1.6033	4.2831;
	32	35	0.008	0.037	0.02	0	0	0	0	0	1	-360	360	-104.6970	-1.2127	105.5394	3.0081;
	32	37	0.032	0.087	0.04	0	0	0	0	0	1	-360	360	84.6303	-7.0587	-82.4211	8.9800;
	33	36	0.0006	0.0064	0.404	0	0	0	0	0	1	-360	360	500.0000	80.3649	-498.5917	-109.8231;
	34	42	0.026	0.154	0.022	0	0	0	0	0	1	-360	360	40.2094	6.2725	-39.7930	-6.0583;
	35	36	0	0.029	0	0	0	0	0	0	1	-360	360	-195.3239	-50.4387	195.3239	61.5785;
	35	43	0.065	0.191	0.02	0	0	0	0	0	1	-360	360	-67.3941	16.8637	70.3779	-10.2527;
	35	44	0.031	0.089	0.036	0	0	0	0	0	1	-360	360	-40.5773	17.6791	41.1713	-19.7731;
	36	40	0.002	0.014	0.806	0	0	0	0	0	1	-360	360	580.0467	-27.3855	-573.8789	-16.5741;
	37	38	0.026	0.072	0.035	0	0	0	0	0	1	-360	360	10.9295	-16.7279	-10.8403	13.4417;
	37	42	0.095	0.262	0.032	0	0	0	0	0	1	-360	360	-3.9361	-0.6196	3.9517	-2.5460;
	37	46	0.013	0.039	0.016	0	0	0	0	0	1	-360	360	36.4277	-0.6325	-36.2555	-0.4455;
	38	41	0.027	0.084	0.039	0	0	0	0	0	1	-360	360	118.8079	2.7553	-115.0565	5.0667;
	38	47	0.028	0.084	0.037	0	0	0	0	0	1	-360	360	-21.5372	9.8885	21.7030	-13.1427;
	39	52	0.007	0.041	0.312	0	0	0	0	0	1	-360	360	-223.3547	24.6110	226.8125	-37.0212;
	39	62	0.009	0.054	0.411	0	0	0	0	0	1	-360	360	241.7411	0.9417	-236.6589	-12.3037;
	40	68	0.005	0.042	0.69	0	0	0	0	0	1	-360	360	311.0621	-53.6871	-306.5284	17.9524;
	41	61	0.052	0.145	0.073	0	0	0	0	0	1	-360	360	26.5064	-12.1507	-26.0835	6.3511;
	41	92	0.043	0.118	0.013	0	0	0	0	0	1	-360	360	30.5502	-4.7161	-30.1229	4.6551;
	42	87	0.025	0.062	0.007	0	0	0	0	0	1	-360	360	-5.1587	-10.3957	5.1905	9.7664;
	43	44	0.031	0.094	0.043	0	0	0	0	0	1	-360	360	101.9484	-6.6551	-99.0068	10.9552;
	44	45	0.037	0.109	0.049	0	0	0	0	0	1	-360	360	62.8355	3.8179	-61.4317	-4.6986;
	45	48	0.027	0.08	0.036	0	0	0	0	0	1	-360	360	0.4317	-23.3014	-0.3062	20.0254;
	46	47	0.025	0.073	0.035	0	0	0	0	0	1	-360	360	-32.7445	-2.5545	33.0149	-0.1603;
	47	48	0.035	0.103	0.047	0	0	0	0	0	1	-360	360	-64.7179	12.3029	66.2435	-12.6091;
	48	49	0.065	0.169	0.082	0	0	0	0	0	1	-360	360	-42.9373	2.9548	44.1327	-8.4512;
	49	50	0.046	0.08	0.036	0	0	0	0	0	1	-360	360	-10.1228	58.5134	11.7400	-59.3942;
	49	55	0.159	0.537	0.071	0	0	0	0	0	1	-360	360	32.9902	3.5060	-31.2907	-4.8183;
	50	51	0.009	0.026	0.005	0	0	0	0	0	1	-360	360	-25.7400	58.3942	26.1152	-57.7957;
	51	53	0.002	0.013	0.015	0	0	0	0	0	1	-360	360	-244.1152	-48.2043	245.4062	55.1408;
	52	54	0.009	0.065	0.485	0	0	0	0	0	1	-360	360	-226.8125	37.0212	231.5565	-53.2571;
	54	56	0.016	0.105	0.203	0	0	0	0	0	1	-360	360	197.1934	44.9830	-190.6900	-21.9030;
	54	123	0.001	0.007	0.013	0	0	0	0	0	1	-360	360	-101.1561	13.1695	101.2571	-13.8048;
	55	236	0.0265	0.172	0.026	0	0	0	0	0	1	-360	360	151.9807	6.1120	-145.3000	34.9000;
	57	190	0.051	0.232	0.028	0	0	0	0	0	1	-360	360	-27.4515	-10.7216	27.9151	10.1277;
	57	66	0.051	0.157	0.023	0	0	0	0	0	1	-360	360	-17.3041	-7.0924	17.4888	5.4864;
	58	59	0.032	0.1	0.062	0	0	0	0	0	1	-360	360	-84.3678	1.4387	86.8909	0.6672;
	58	237	0.02	0.1234	0.028	0	0	0	0	0	1	-360	360	28.3678	-21.4387	-28.1000	20.5000;
	59	60	0.036	0.131	0.068	0	0	0	0	0	1	-360	360	-26.2331	11.8946	26.5776	-17.0988;
	59	61	0.034	0.099	0.047	0	0	0	0	0	1	-360	360	-60.6579	22.8229	62.1849	-22.8764;
	60	64	0.018	0.087	0.011	0	0	0	0	0	1	-360	360	-49.3386	-5.0360	49.8086	6.2582;
	60	238	0.0256	0.193	0	0	0	0	0	0	1	-360	360	14.0561	2.9231	-14.0000	-2.5000;
	61	63	0.021	0.057	0.03	0	0	0	0	0	1	-360	360	27.5031	13.2967	-27.2892	-15.5414;
	61	66	0.018	0.052	0.018	0	0	0	0	0	1	-360	360	-23.4022	-0.8868	23.5054	-0.5433;
	62	73	0.004	0.027	0.05	0	0	0	0	0	1	-360	360	-78.8065	-59.3829	79.1871	56.8926;
	62	240	0.0286	0.2013	0.379	0	0	0	0	0	1	-360	360	51.2631	-14.1612	-50.5000	-17.4000;
	63	64	0.016	0.043	0.004	0	0	0	0	0	1	-360	360	-68.5705	-19.9359	69.4487	21.9169;
	64	65	0.001	0.006	0.007	0	0	0	0	0	1	-360	360	-257.8534	-57.7139	258.5744	61.3581;
	64	67	0.014	0.07	0.038	0	0	0	0	0	1	-360	360	-3.1181	-6.0693	3.1221	2.3985;
	64	239	0.0891	0.2676	0.029	0	0	0	0	0	1	-360	360	-10.9832	-3.9052	11.1000	1.4000;
	64	241	0.0782	0.2127	0.022	0	0	0	0	0	1	-360	360	30.3462	0.5547	-29.6000	-0.6000;
	65	66	0.006	0.022	0.011	0	0	0	0	0	1	-360	360	79.4256	14.4920	-79.0256	-14.0948;
	65	69	0	0.036	0	0	0	0	0	0	1	-360	360	-338.0000	-75.8501	338.0000	119.9241;
	66	190	0.099	0.375	0.051	0	0	0	0	0	1	-360	360	-9.9686	-4.8483	10.0765	0.2385;
	67	190	0.022	0.107	0.058	0	0	0	0	0	1	-360	360	-31.1221	-9.3985	31.3505	4.7722;
	68	173	0.0035	0.033	0.53	0	0	0	0	0	1	-360	360	11.4693	-76.0730	-11.3904	19.3173;
	68	174	0.0035	0.033	0.53	0	0	0	0	0	1	-360	360	101.7731	-43.0547	-101.4271	-10.4589;
	70	71	0.008	0.064	0.128	0	0	0	0	0	1	-360	360	-92.6571	2.5087	93.3683	-9.3385;
	71	72	0.012	0.093	0.183	0	0	0	0	0	1	-360	360	-116.1723	11.4975	117.8732	-16.3012;
	71	234	0.006	0.048	0.092	0	0	0	0	0	1	-360	360	-14.8558	17.9121	14.9000	-26.5000;
	74	76	0.047	0.119	0.014	0	0	0	0	0	1	-360	360	-29.3562	-6.3252	29.7505	5.8037;
	75	77	0.032	0.174	0.024	0	0	0	0	0	1	-360	360	-54.4465	-3.5211	55.3470	5.8234;
	76	78	0.1	0.253	0.031	0	0	0	0	0	1	-360	360	8.4712	19.4920	-8.0000	-21.5434;
	76	79	0.022	0.077	0.039	0	0	0	0	0	1	-360	360	99.3783	18.7331	-97.3283	-15.7379;
	77	84	0.019	0.144	0.017	0	0	0	0	0	1	-360	360	78.3160	9.6514	-77.2437	-3.3652;
	77	86	0.017	0.092	0.012	0	0	0	0	0	1	-360	360	140.5370	15.4876	-137.4631	-0.1431;
	78	79	0.278	0.427	0.043	0	0	0	0	0	1	-360	360	8.6851	-13.1217	-8.1311	9.6238;
	79	82	0.022	0.053	0.007	0	0	0	0	0	1	-360	360	43.4728	5.5394	-43.0644	-5.2726;
	79	83	0.038	0.092	0.012	0	0	0	0	0	1	-360	360	40.1902	2.8430	-39.5938	-2.6219;
	79	84	0.048	0.122	0.015	0	0	0	0	0	1	-360	360	-18.1036	-2.2683	18.2564	1.0852;
	80	82	0.024	0.064	0.007	0	0	0	0	0	1	-360	360	-6.9581	-7.0875	6.9806	6.4434;
	80	83	0.034	0.121	0.015	0	0	0	0	0	1	-360	360	8.2581	-3.6057	-8.2321	2.1970;
	81	87	0.053	0.135	0.017	0	0	0	0	0	1	-360	360	-52.2935	7.0417	53.8077	-4.8828;
	81	88	0.002	0.004	0.002	0	0	0	0	0	1	-360	360	-10.3793	-10.7756	10.3838	10.5888;
	81	89	0.045	0.354	0.044	0	0	0	0	0	1	-360	360	28.3230	-0.3575	-27.9527	-0.9755;
	81	90	0.05	0.174	0.022	0	0	0	0	0	1	-360	360	43.5069	-2.6496	-42.5387	3.9002;
	82	83	0.016	0.038	0.004	0	0	0	0	0	1	-360	360	36.0838	-1.1708	-35.8778	1.2574;
	83	85	0.043	0.064	0.027	0	0	0	0	0	1	-360	360	43.5635	-21.7939	-42.5691	20.5834;
	84	86	0.019	0.062	0.008	0	0	0	0	0	1	-360	360	26.9873	2.2800	-26.8553	-2.6904;
	85	88	0.076	0.13	0.044	0	0	0	0	0	1	-360	360	31.5571	-15.2230	-30.6634	12.4143;
	85	233	0.044	0.124	0.015	0	0	0	0	0	1	-360	360	2.4120	-5.3603	-2.4000	3.9000;
	86	87	0.012	0.088	0.011	0	0	0	0	0	1	-360	360	64.0767	7.2575	-63.5982	-4.8837;
	86	90	0.157	0.4	0.047	0	0	0	0	0	1	-360	360	50.6416	-4.4240	-46.7829	9.5735;
	88	235	0.074	0.208	0.026	0	0	0	0	0	1	-360	360	25.1796	-2.3618	-24.7000	1.2000;
	89	90	0.07	0.184	0.021	0	0	0	0	0	1	-360	360	-10.2890	4.1379	10.3863	-5.8752;
	89	92	0.1	0.274	0.031	0	0	0	0	0	1	-360	360	-3.8957	1.7966	3.9229	-4.6551;
	89	93	0.109	0.393	0.036	0	0	0	0	0	1	-360	360	11.4374	-4.9589	-11.2754	2.1136;
	90	91	0.142	0.404	0.05	0	0	0	0	0	1	-360	360	15.9353	-7.5986	-15.5136	4.0566;
	91	93	0.017	0.042	0.006	0	0	0	0	0	1	-360	360	-4.0864	-4.0566	4.0920	3.4991;
	94	101	0.0036	0.0199	0.004	0	0	0	0	0	1	-360	360	52.5364	-69.6241	-52.2404	70.8866;
	95	99	0.002	0.1049	0.001	0	0	0	0	0	1	-360	360	-62.6752	68.2255	62.8388	-59.7448;
	96	97	0.0001	0.0018	0.017	0	0	0	0	0	1	-360	360	-487.6804	287.4010	488.0476	-282.2699;
	97	98	0	0.0271	0	0	0	0	0	0	1	-360	360	-577.9304	-342.9940	577.9304	484.5542;
	97	245	0	0.6163	0	0	0	0	0	0	1	-360	360	29.2832	-9.5899	-29.2832	16.3577;
	245	99	0	-0.3697	0	0	0	0	0	0	1	-360	360	29.2832	-16.3577	-29.2832	12.2979;
	97	100	0.0022	0.2915	0	0	0	0	0	0	1	-360	360	46.4997	-15.1462	-46.4388	23.2093;
	98	99	0	0.0339	0	0	0	0	0	0	1	-360	360	710.5556	348.6834	-710.5556	-153.6474;
	98	100	0	0.0582	0	0	0	0	0	0	1	-360	360	541.0976	185.8469	-541.0976	-10.8952;
	101	102	0.0808	0.2344	0.029	0	0	0	0	0	1	-360	360	17.8284	-18.3756	-17.3101	17.0551;
	101	104	0.0965	0.3669	0.054	0	0	0	0	0	1	-360	360	15.4729	-15.8951	-15.0473	12.2022;
	102	103	0.036	0.1076	0.117	0	0	0	0	0	1	-360	360	-67.5207	-1.8928	69.1657	-5.1732;
	102	104	0.0476	0.1414	0.149	0	0	0	0	0	1	-360	360	6.8308	-16.5623	-6.7692	1.6822;
	104	105	0.0006	0.0197	0	0	0	0	0	0	1	-360	360	-492.9835	103.2511	494.4747	-54.2873;
	105	106	0.0059	0.0405	0.25	0	0	0	0	0	1	-360	360	-99.0769	-1.7042	99.6654	-19.2038;
	105	108	0.0115	0.1106	0.185	0	0	0	0	0	1	-360	360	-131.2153	9.7543	133.2456	-8.7396;
	105	111	0.0198	0.1688	0.321	0	0	0	0	0	1	-360	360	-158.3646	21.3398	163.6293	-8.6330;
	105	136	0.005	0.05	0.33	0	0	0	0	0	1	-360	360	-29.1729	13.3401	29.2602	-44.8866;
	105	137	0.0077	0.0538	0.335	0	0	0	0	0	1	-360	360	-46.4616	-11.1171	46.6309	-21.0827;
	105	148	0.0165	0.1157	0.171	0	0	0	0	0	1	-360	360	-88.0834	17.5745	89.4820	-24.6232;
	106	107	0.0059	0.0577	0.095	0	0	0	0	0	1	-360	360	-171.6690	17.5851	173.4367	-9.8214;
	106	113	0.0049	0.0336	0.208	0	0	0	0	0	1	-360	360	-137.7994	-52.7847	138.8176	38.4997;
	106	147	0.0059	0.0577	0.095	0	0	0	0	0	1	-360	360	-170.9970	17.4035	172.7507	-9.7776;
	107	109	0.0078	0.0773	0.126	0	0	0	0	0	1	-360	360	-234.7045	17.0946	239.0232	12.8312;
	107	112	0.0026	0.0193	0.03	0	0	0	0	0	1	-360	360	61.2677	-7.2732	-61.1697	4.9873;
	108	109	0.0076	0.0752	0.122	0	0	0	0	0	1	-360	360	-232.7001	16.0936	236.8296	12.2969;
	108	112	0.0021	0.0186	0.03	0	0	0	0	0	1	-360	360	99.4544	-7.3540	-99.2472	6.1752;
...
];

%%-----  OPF Data  -----%%
%% generator cost data
%	1	startup	shutdown	n	x1	y1	...	xn	yn
%	2	startup	shutdown	n	c(n-1)	...	c0
mpc.gencost = [
	2	0	0	3	0.01	40	0;
	2	0	0	3	0.01	40	0;
	2	0	0	3	0.01	40	0;
	2	0	0	3	0.01	40	0;
	2	0	0	3	0.01	40	0;
	2	0	0	3	0.0266666667	20	0;
	2	0	0	3	0.064516129	20	0;
	2	0	0	3	0.0344827586	20	0;
	2	0	0	3	0.147058824	20	0;
	2	0	0	3	0.0854700855	20	0;
	2	0	0	3	0.00518134715	20	0;
	2	0	0	3	0.0416666667	20	0;
	2	0	0	3	0.01	40	0;
	2	0	0	3	0.01	40	0;
	2	0	0	3	0.0355871886	20	0;
	2	0	0	3	0.0143678161	20	0;
	2	0	0	3	0.119047619	20	0;
	2	0	0	3	0.0460829493	20	0;
	2	0	0	3	0.0970873786	20	0;
	2	0	0	3	0.0268817204	20	0;
	2	0	0	3	0.0462962963	20	0;
	2	0	0	3	0.01	40	0;
	2	0	0	3	0.0487804878	20	0;
	2	0	0	3	0.01	40	0;
	2	0	0	3	0.0438596491	20	0;
	2	0	0	3	0.119047619	20	0;
	2	0	0	3	0.05	20	0;
	2	0	0	3	0.00833333333	20	0;
	2	0	0	3	0.00833333333	20	0;
	2	0	0	3	0.0210526316	20	0;
	2	0	0	3	0.00506842372	20	0;
	2	0	0	3	0.0235849057	20	0;
	2	0	0	3	0.0367647059	20	0;
	2	0	0	3	0.1	20	0;
	2	0	0	3	0.0222222222	20	0;
	2	0	0	3	0.04	20	0;
	2	0	0	3	0.0330033003	20	0;
	2	0	0	3	0.0289855072	20	0;
	2	0	0	3	0.0333333333	20	0;
	2	0	0	3	0.0166666667	20	0;
	2	0	0	3	0.04	20	0;
	2	0	0	3	0.0181818182	20	0;
	2	0	0	3	0.0173783084	20	0;
	2	0	0	3	0.0588235294	20	0;
	2	0	0	3	0.119047619	20	0;
	2	0	0	3	0.0214132762	20	0;
	2	0	0	3	0.0160513644	20	0;
	2	0	0	3	0.00826446281	20	0;
	2	0	0	3	0.0427350427	20	0;
	2	0	0	3	0.0268817204	20	0;
	2	0	0	3	0.0303030303	20	0;
	2	0	0	3	0.0540540541	20	0;
	2	0	0	3	0.0243902439	20	0;
	2	0	0	3	0.02	20	0;
	2	0	0	3	0.27027027	20	0;
	2	0	0	3	0.01	40	0;
	2	0	0	3	0.222222222	20	0;
	2	0	0	3	0.0606060606	20	0;
	2	0	0	3	0.025	20	0;
	2	0	0	3	0.025	20	0;
	2	0	0	3	0.0862068966	20	0;
	2	0	0	3	0.00773993808	20	0;
	2	0	0	3	0.0142857143	20	0;
	2	0	0	3	0.0180831826	20	0;
	2	0	0	3	0.01	40	0;
	2	0	0	3	0.01	40	0;
	2	0	0	3	0.01	40	0;
	2	0	0	3	0.2	20	0;
	2	0	0	3	1.25	20	0;
];
